*----------------------------------------------------------------------
* SPICE Model generated by Murata Manufacturing Co., Ltd.
* Copyright(C) Murata Manufacturing Co., Ltd.
* Description :0603M(0201)/X5R/2.2uF/6.3V
* Murata P/N :GRM033R60J225ME15
* Property : C = 2.2[uF]
* Data Generated on Nov 6, 2017
*----------------------------------------------------------------------
* Applicable Conditions:
*   Frequency Range = 100Hz-6GHz
*   Temperature = 25 degC
*   DC Bias Voltage = 0V
*   Small Signal Operation
*----------------------------------------------------------------------
.SUBCKT GRM033R60J225ME15_DC0V_25degC port1 port2
C1 port1 11 1.70e-6
L2 11 12 1.12e-10
R3 12 13 8.20e-3
C4 13 14 6.76e-5
R4 13 14 78.5
C5 14 15 1.07e-4
R5 14 15 5.91
C6 15 16 1.13e-4
R6 15 16 7.79e-1
C7 16 17 1.14e-4
R7 16 17 8.69e-2
C8 17 18 8.58e-5
R8 17 18 1.36e-2
C9 18 19 7.05e-5
R9 18 19 2.93e-3
L10 19 20 2.42e-11
R10 19 20 1.38e-1
L11 20 21 7.31e-11
R11 20 21 3.36e-2
C12 21 22 5.64e-7
L12 21 22 5.75e-11
R12 21 22 5.83e-3
C13 22 port2 3.39e-11
L13 22 port2 7.90e-12
R13 22 port2 1.82
R100 port1 11 2.27e+7
.ENDS GRM033R60J225ME15_DC0V_25degC