*----------------------------------------------------------------------
* SPICE Model generated by Murata Manufacturing Co., Ltd.
* Copyright(C) Murata Manufacturing Co., Ltd.
* Description :0603M(0201)/X7S/0.1uF/16V
* Murata P/N :GRM033C71C104KE14
* Property : C = 0.1[uF]
* Data Generated on Nov 6, 2018
*----------------------------------------------------------------------
* Applicable Conditions:
*   Frequency Range = 100Hz-6GHz
*   Temperature = 25 degC
*   DC Bias Voltage = 0V
*   Small Signal Operation
*----------------------------------------------------------------------
.SUBCKT GRM033C71C104KE14_DC0V_25degC port1 port2
C1 port1 11 7.79e-8
L2 11 12 1.58e-10
R3 12 13 2.90e-2
C4 13 14 3.39e-6
R4 13 14 1.17e+3
C5 14 15 4.20e-6
R5 14 15 138
C6 15 16 4.33e-6
R6 15 16 19.5
C7 16 17 3.49e-6
R7 16 17 4.07
C8 17 18 3.04e-6
R8 17 18 6.10e-1
C9 18 19 2.05e-6
R9 18 19 1.24e-1
C10 19 20 1.11e-6
R10 19 20 2.21e-2
L11 20 21 1.73e-11
R11 20 21 3.77e-1
L12 21 22 4.44e-11
R12 21 22 1.54e-1
C13 22 23 1.99e-8
L13 22 23 4.78e-11
R13 22 23 2.86e-2
C14 23 port2 8.02e-10
L14 23 port2 8.39e-13
R14 23 port2 1.03e-1
R100 port1 11 5.00e+8
.ENDS GRM033C71C104KE14_DC0V_25degC